[TITLE]


[JUNCTIONS]
;ID              	Elev        	Demand      	Pattern         	
2	30	370.83	                	;
3	30	318.7485	                	;
4	30	48.7485	                	;
5	30	271.875	                	;
6	30	376.8795	                	;
7	30	506.25	                	;
8	30	229.17	                	;
9	30	196.86	                	;
10	30	196.8705	                	;
11	30	208.335	                	;
12	30	233.34	                	;
13	30	391.665	                	;
14	30	230.61	                	;
15	30	105	                	;
16	30	116.2485	                	;
17	30	324.378	                	;
18	30	502.5	                	;
19	30	25.005	                	;
20	30	478.1295	                	;
21	30	387.495	                	;
22	30	180	                	;
23	30	391.878	                	;
24	30	307.5	                	;
25	30	63.735	                	;
26	30	337.5	                	;
27	30	154.17	                	;
28	30	120.84	                	;
29	30	135	                	;
30	30	135	                	;
31	30	39.3795	                	;
32	30	301.8735	                	;
 L10             	30	37.083	                	;
 L9              	30	21.8745	                	;
 D8              	30	0	                	;
 L7              	30	56.25	                	;
 L6              	30	41.865	                	;
 L5              	30	30.2085	                	;
 L14             	30	25.62	                	;
 L15             	30	11.667	                	;
 L16             	30	12.9165	                	;
 D27             	30	0	                	;
 L26             	30	37.5	                	;
 L25             	30	7.083	                	;
 L32             	30	33.5415	                	;
 L31             	30	4.3755	                	;
 L24             	30	34.167	                	;
 L17             	30	36.042	                	;
 L30             	30	15	                	;
 L29             	30	15	                	;
 D28             	30	0	                	;
 L23             	30	43.542	                	;
 L20             	30	53.1255	                	;
 L3              	30	35.4165	                	;
 L4              	30	5.4165	                	;
 LN2             	50	0	                	;
 LN1             	50	0	                	;
 LN3             	50	0	                	;
 D21             	30	0	                	;
 L22             	30	20.1	                	;
 L18             	30	55.95	                	;



[RESERVOIRS]
;ID              	Head        	Pattern         
 1               	100         	                	;
 LR1             	20          	                	;
 LR3             	20          	                	;
 LR2             	20          	                	;

[TANKS]
;ID              	Elevation   	InitLevel   	MinLevel    	MaxLevel    	Diameter    	MinVol      	VolCurve        	Overflow
 LT2             	60          	10          	0           	20          	25          	0           	                	;
 LT1             	60          	10          	0           	20          	25          	0           	                	;
 LT3             	60          	10          	0           	20          	25          	0           	                	;

[PIPES]
;ID              	Node1           	Node2           	Length      	Diameter    	Roughness   	MinorLoss   	Status
 1               	1               	2               	100         	1016        	130         	0           	Open  	;
 2               	2               	3               	1350        	1016        	130         	0           	Open  	;
 3               	3               	4               	900         	1016        	130         	0           	Open  	;
 4               	4               	5               	1150        	1016        	130         	0           	Open  	;
 5               	5               	6               	1450        	1016        	130         	0           	Open  	;
 6               	6               	7               	450         	1016        	130         	0           	Open  	;
 7               	7               	8               	850         	1016        	130         	0           	Open  	;
 8               	8               	9               	850         	1016        	130         	0           	Open  	;
 9               	9               	10              	800         	1016        	130         	0           	Open  	;
 10              	10              	11              	950         	762         	130         	0           	Open  	;
 11              	11              	12              	1200        	762         	130         	0           	Open  	;
 12              	12              	13              	3500        	609.6       	130         	0           	Open  	;
 13              	10              	14              	800         	406.4       	130         	0           	Open  	;
 14              	14              	15              	500         	406.4       	130         	0           	Open  	;
 15              	15              	16              	550         	304.8       	130         	0           	Open  	;
 16              	17              	16              	2730        	406.4       	130         	0           	Open  	;
 17              	17              	18              	1750        	508         	130         	0           	Open  	;
 18              	18              	19              	800         	609.6       	130         	0           	Open  	;
 19              	19              	3               	400         	609.6       	130         	0           	Open  	;
 20              	3               	20              	2200        	1016        	130         	0           	Open  	;
 21              	20              	21              	1500        	508         	130         	0           	Open  	;
 22              	21              	22              	500         	304.8       	130         	0           	Open  	;
 23              	20              	23              	2650        	1016        	130         	0           	Open  	;
 24              	23              	24              	1230        	762         	130         	0           	Open  	;
 25              	24              	25              	1300        	762         	130         	0           	Open  	;
 26              	26              	25              	850         	508         	130         	0           	Open  	;
 27              	27              	26              	300         	304.8       	130         	0           	Open  	;
 28              	16              	27              	750         	304.8       	130         	0           	Open  	;
 29              	23              	28              	1500        	406.4       	130         	0           	Open  	;
 30              	28              	29              	2000        	406.4       	130         	0           	Open  	;
 31              	29              	30              	1600        	304.8       	130         	0           	Open  	;
 32              	30              	31              	150         	304.8       	130         	0           	Open  	;
 33              	32              	31              	860         	406.4       	130         	0           	Open  	;
 34              	25              	32              	950         	508         	130         	0           	Open  	;
 LP9             	L10             	L9              	800         	304.8       	130         	0           	Open  	;
 LP8             	L9              	D8              	850         	304.8       	130         	0           	Open  	;
 LP7             	D8              	L7              	850         	304.8       	130         	0           	Open  	;
 LP6             	L7              	L6              	450         	304.8       	130         	0           	Open  	;
 LP5             	L6              	L5              	1450        	304.8       	130         	0           	Open  	;
 LP14            	L14             	L15             	500         	304.5       	130         	0           	Open  	;
 LP15            	L15             	L16             	550         	304.8       	130         	0           	Open  	;
 LP28            	L16             	D27             	750         	304.8       	130         	0           	Open  	;
 LP27            	D27             	L26             	300         	304.8       	130         	0           	Open  	;
 LP26            	L26             	L25             	850         	304.8       	130         	0           	Open  	;
 LP34            	L25             	L32             	950         	304.8       	130         	0           	Open  	;
 LP33            	L32             	L31             	860         	304.8       	130         	0           	Open  	;
 LP25            	L25             	L24             	1300        	304.8       	130         	0           	Open  	;
 LP16            	L16             	L17             	2730        	304.8       	130         	0           	Open  	;
 LP31            	L30             	L29             	1600        	304.8       	130         	0           	Open  	;
 LP30            	L29             	D28             	2000        	406.4       	130         	0           	Open  	;
 LP29            	D28             	L23             	1500        	304.8       	130         	0           	Open  	;
 LP23            	L23             	L20             	2650        	304.8       	130         	0           	Open  	;
 LP20            	L20             	L3              	2200        	304.8       	130         	0           	Open  	;
 LP3             	L3              	L4              	900         	304.8       	130         	0           	Open  	;
 LTC2            	LN2             	LT2             	1000        	406.4       	100         	0           	Open  	;
 LTC1            	LT1             	LN1             	1000        	406.4       	100         	0           	Open  	;
 LTC3            	LT3             	LN3             	1000        	304.8       	100         	0           	Open  	;
 LP21            	L20             	D21             	1500        	304.8       	100         	0           	Open  	;
 LP22            	D21             	L22             	500         	304.8       	100         	0           	Open  	;
 LP17            	L18             	L17             	1700        	304.8       	100         	0           	Open  	;

[PUMPS]
;ID              	Node1           	Node2           	Parameters
 LWP2            	LR2             	LT2             	HEAD 1	;
 LWP1            	LR1             	LT1             	HEAD 1	;
 LWP3            	LR3             	LT3             	HEAD 1	;

[VALVES]
;ID              	Node1           	Node2           	Diameter    	Type	Setting     	MinorLoss   
 LV1             	LN1             	L29             	406.4       	FCV 	0           	0           	;
 LV3             	LN3             	L6              	304.8       	FCV 	0           	0           	;
 LV2             	LN2             	L26             	304.8       	FCV 	0           	0           	;

[TAGS]

[DEMANDS]
;Junction        	Demand      	Pattern         	Category

[STATUS]
;ID              	Status/Setting
 LV1             	Open
 LV3             	Open
 LV2             	Open

[PATTERNS]
;ID              	Multipliers

[CURVES]
;ID              	X-Value     	Y-Value
;PUMP: PUMP: PUMP: PUMP: PUMP: PUMP: 
 1               	0           	104         
 1               	500         	90          
 1               	1200        	60          

[CONTROLS]









[RULES]









[ENERGY]
 Global Efficiency  	75
 Global Price       	0
 Demand Charge      	0

[EMITTERS]
;Junction        	Coefficient

[QUALITY]
;Node            	InitQual

[SOURCES]
;Node            	Type        	Quality     	Pattern

[REACTIONS]
;Type     	Pipe/Tank       	Coefficient


[REACTIONS]
 Order Bulk            	1
 Order Tank            	1
 Order Wall            	1
 Global Bulk           	0
 Global Wall           	0
 Limiting Potential    	0
 Roughness Correlation 	0

[MIXING]
;Tank            	Model

[TIMES]
 Duration           	168:00 
 Hydraulic Timestep 	1:00 
 Quality Timestep   	0:05 
 Pattern Timestep   	1:00 
 Pattern Start      	0:00 
 Report Timestep    	1:00 
 Report Start       	0:00 
 Start ClockTime    	12 am
 Statistic          	NONE

[REPORT]
 Status             	No
 Summary            	No
 Page               	0

[OPTIONS]
 Units              	LPS
 Headloss           	H-W
 Specific Gravity   	1
 Viscosity          	1
 Trials             	40
 Accuracy           	0.000001
 CHECKFREQ          	2
 MAXCHECK           	10
 DAMPLIMIT          	0
 Unbalanced         	Continue 10
 Pattern            	1
 Demand Multiplier  	1.0
 Demand Model       	PDA
 Minimum Pressure   	0
 Required Pressure  	4.16
 Pressure Exponent  	0.5
 Emitter Exponent   	0.5
 Quality            	None mg/L
 Diffusivity        	1
 Tolerance          	0.01

[COORDINATES]
;Node            	X-Coord           	Y-Coord
2               	5251.170          	5268.690          
3               	5227.800          	5969.630          
4               	6068.930          	5969.630          
5               	6676.400          	5969.630          
6               	7260.510          	5969.630          
7               	7260.510          	6600.470          
8               	7260.510          	7301.400          
9               	7260.510          	7990.650          
10              	6793.220          	7990.650          
11              	6793.220          	8551.400          
12              	6793.220          	8960.280          
13              	6150.700          	8960.280          
14              	6302.570          	7990.650          
15              	5683.410          	7990.650          
16              	5216.120          	7990.650          
17              	5216.120          	7535.050          
18              	5227.800          	7137.850          
19              	5227.800          	6542.060          
20              	4550.230          	5969.630          
21              	4550.230          	5303.740          
22              	4550.230          	4591.120          
23              	3977.800          	5969.630          
24              	3977.800          	7172.900          
25              	3978.044          	7989.222          
26              	4410.050          	7990.650          
27              	4818.930          	7990.650          
28              	3405.370          	5969.630          
29              	2716.120          	6004.670          
30              	2716.120          	6904.210          
31              	2716.120          	7990.650          
32              	3405.370          	7990.650          
L10             	6540.814          	8403.090          
L9              	8057.842          	8423.730          
D8              	8037.202          	7371.099          
L7              	8047.522          	6545.505          
L6              	8047.522          	5678.632          
L5              	6505.508          	5679.854          
L14             	6267.866          	8443.060          
L15             	5808.870          	8443.060          
L16             	5504.592          	8443.060          
D27             	4930.907          	8444.370          
L26             	4435.551          	8444.370          
L25             	4055.403          	8432.746          
L32             	3394.782          	8433.466          
L31             	2072.290          	8434.050          
L24             	4076.367          	7162.023          
L17             	5504.592          	7535.383          
L30             	2008.381          	7067.156          
L29             	1977.639          	5462.037          
D28             	3403.560          	5461.914          
L23             	4012.435          	5461.914          
L20             	4303.406          	5459.236          
L3              	5384.305          	5463.031          
L4              	6364.183          	5468.189          
LN2             	3300.371          	9558.096          
LN1             	803.461           	5027.812          
LN3             	9731.682          	5665.635          
D21             	4303.406          	4932.921          
L22             	4293.086          	4520.124          
L18             	5513.825          	7098.060          
1               	5251.170          	4485.980          
LR1             	-2177.503         	4716.202          
LR3             	10835.913         	5056.760          
LR2             	2672.859          	10000.000         
LT2             	3199.174          	10165.119         
LT1             	-1424.149         	5025.800          
LT3             	10412.797         	5665.635          

[VERTICES]
;Link            	X-Coord           	Y-Coord
LTC2            	3178.535          	10216.718         

[LABELS]
;X-Coord             Y-Coord             Label & Anchor Node

[BACKDROP]
  DIMENSIONS  	0.000             	0.000             	10000.000         	10000.000         
 UNITS          	None
 FILE           	
 OFFSET         	0.00            	0.00            

[END]
