[TITLE]


[JUNCTIONS]
;ID              	Elev        	Demand      	Pattern         	
 J511            	105.08	0.98	DMA2_pat        	;
 J411            	8.95	0.742	DMA1_pat        	;
 J414            	34.36	1.3522103	DMA1_pat        	;
 J415            	65	0	                	;
 J416            	42.6	0	                	;
 J417            	37.38	1.8077262	DMA1_pat        	;
 J418            	37.39	0	                	;
 J419            	40.5	0	                	;
 J310            	51.84	1.9004762	DMA4_pat        	;
 J311            	55.95	1.654422	DMA4_pat        	;
 J312            	68.48	0.10582327	DMA4_pat        	;
 J313            	67.66	0.9660763	DMA4_pat        	;
 J314            	14.94	1.204	DMA1_pat        	;
 J315            	16.03	1.8444538	DMA1_pat        	;
 J316            	12.98	0.518	DMA1_pat        	;
 J318            	53.67	1.344	DMA4_pat        	;
 J319            	39.29	2.033374	DMA4_pat        	;
 J210            	7.01	0.131219284	DMA1_pat        	;
 J211            	11.27	1.316	DMA1_pat        	;
 J212            	7.87	0.504	DMA1_pat        	;
 J214            	8.67	0.728	DMA1_pat        	;
 J217            	10.98	1.064	DMA1_pat        	;
 J218            	7.68	0.124843838	DMA1_pat        	;
 J219            	52	0.826	DMA5_pat        	;
 J110            	15.92	0.644	DMA1_pat        	;
 J420            	39.99	0	                	;
 J421            	37.09	1.4529592	DMA1_pat        	;
 J422            	38.81	0	                	;
 J1153           	22.14	0.615517	DMA1_pat        	;
 J1154           	14.61	0.651798	DMA1_pat        	;
 J1155           	15.54	1.1606	DMA1_pat        	;
 J425            	64.42	0	                	;
 J426            	72.71	0	                	;
 J1157           	22.21	1.372	DMA1_pat        	;
 J427            	67.65	0	                	;
 J1158           	28.25	0.529354	DMA1_pat        	;
 J428            	16.2	1.6219364	DMA1_pat        	;
 J429            	12.56	1.372	DMA1_pat        	;
 J320            	46.73	0.28	DMA4_pat        	;
 J321            	44.59	1.24570376	DMA4_pat        	;
 J322            	48.02	0.24819592	DMA4_pat        	;
 J324            	42.38	1.386	DMA4_pat        	;
 J1056           	7.64	0.938	DMA1_pat        	;
 J327            	49.68	0.036642284	DMA4_pat        	;
 J1058           	13.58	1.34209558	DMA1_pat        	;
 J328            	45.69	0.14	DMA4_pat        	;
 J329            	44.05	0.14	DMA4_pat        	;
 J220            	80	1.8640636	DMA5_pat        	;
 J221            	97.07	0.392	DMA4_pat        	;
 J225            	13.33	0.10651473	DMA1_pat        	;
 J226            	11.1	0.69013658	DMA1_pat        	;
 J50             	71.8	0.532	DMA4_pat        	;
 J51             	77.42	0.42	DMA4_pat        	;
 J53             	85	1.106	DMA5_pat        	;
 J54             	80	1.358	DMA5_pat        	;
 J128            	85.26	0.56	DMA2_pat        	;
 J55             	71	0.64932	DMA5_pat        	;
 J129            	62.85	0.3743635	DMA2_pat        	;
 J56             	72	0.224	DMA5_pat        	;
 J57             	59	0.896	DMA5_pat        	;
 J58             	76	0.476	DMA5_pat        	;
 J59             	57	0.574	DMA5_pat        	;
 J1160           	24.91	0.994	DMA1_pat        	;
 J1161           	25.25	0.7611478	DMA1_pat        	;
 J431            	16.9	0.882	DMA1_pat        	;
 J432            	19.88	0.48430942	DMA1_pat        	;
 J433            	27.35	0.4340315	DMA1_pat        	;
 J434            	16.48	0.812	DMA1_pat        	;
 J435            	12.15	0.112	DMA1_pat        	;
 J436            	17.68	0.63	DMA1_pat        	;
 J438            	10.43	1.05	DMA1_pat        	;
 J1169           	55.42	0.60985946	DMA3_pat        	;
 J439            	17.78	1.8321618	DMA1_pat        	;
 J330            	58.25	0.518	DMA4_pat        	;
 J331            	59.26	0.392	DMA4_pat        	;
 J332            	44.18	1.8536	DMA1_pat        	;
 J333            	25.7	1.4740656	DMA1_pat        	;
 J334            	29.28	1.464498	DMA1_pat        	;
 J335            	25.08	0.99973146	DMA1_pat        	;
 J336            	23.81	0.22860558	DMA1_pat        	;
 J337            	22.11	0.784	DMA1_pat        	;
 J231            	71.9	1.6204664	DMA4_pat        	;
 J232            	69.81	2.1320082	DMA4_pat        	;
 J233            	74.23	0	                	;
 J234            	64.06	0.042	DMA2_pat        	;
 J236            	58	1.26784154	DMA5_pat        	;
 J237            	73.14	2.137716	DMA5_pat        	;
 J130            	54.52	1.0039428	DMA2_pat        	;
 J131            	88.05	1.414	DMA2_pat        	;
 J132            	74.55	0.7	DMA2_pat        	;
 J133            	69.58	1.19872088	DMA2_pat        	;
 J60             	55	0.644	DMA5_pat        	;
 J134            	80.7	0.49	DMA2_pat        	;
 J135            	70	0.56	DMA2_pat        	;
 J62             	60	0.6293735	DMA5_pat        	;
 J64             	82	0.129718176	DMA5_pat        	;
 J65             	82	0.56897204	DMA5_pat        	;
 J66             	72	1.358	DMA5_pat        	;
 J67             	81	0.084	DMA5_pat        	;
 J68             	73	0.448	DMA5_pat        	;
 J69             	71	0.8516557	DMA5_pat        	;
 J1170           	54.54	0.672	DMA3_pat        	;
 J441            	69	0	                	;
 J444            	29.46	1.10707142	DMA1_pat        	;
 J341            	14.89	0.35	DMA1_pat        	;
 J344            	54.7	1.467088	DMA3_pat        	;
 J345            	49.97	1.26483042	DMA3_pat        	;
 J347            	54.4	0.36470504	DMA3_pat        	;
 J348            	62.18	1.092	DMA4_pat        	;
 J349            	36.41	0.91	DMA4_pat        	;
 J241            	70	1.18087046	DMA5_pat        	;
 J242            	65	0.546	DMA5_pat        	;
 J243            	60	0.25054246	DMA5_pat        	;
 J244            	70	1.092	DMA5_pat        	;
 J245            	71	0.63	DMA5_pat        	;
 J246            	55	1.7586058	DMA5_pat        	;
 J247            	57	0.826	DMA5_pat        	;
 J248            	54	1.162	DMA5_pat        	;
 J249            	50	0.043769446	DMA5_pat        	;
 J142            	5.53	0.4908603	DMA1_pat        	;
 J143            	6.3	0.17255784	DMA1_pat        	;
 J70             	70	0.2460563	DMA5_pat        	;
 J144            	4.17	0.77395388	DMA1_pat        	;
 J71             	77	0.1792	DMA5_pat        	;
 J72             	75	0.000562722	DMA5_pat        	;
 J73             	80	0.742	DMA5_pat        	;
 J74             	75	1.5331288	DMA5_pat        	;
 J76             	70	1.26936614	DMA5_pat        	;
 J77             	76	1.148	DMA5_pat        	;
 J78             	60.56	0.19108488	DMA4_pat        	;
 J350            	33.82	0.44781926	DMA3_pat        	;
 J351            	25.51	0.784	DMA4_pat        	;
 J352            	47.55	0.63	DMA4_pat        	;
 J353            	22.64	0.83305418	DMA4_pat        	;
 J354            	18.68	0.34995562	DMA4_pat        	;
 J355            	28.87	1.6435902	DMA4_pat        	;
 J358            	22.3	2.1671678	DMA4_pat        	;
 J359            	17.57	1.2371625	DMA4_pat        	;
 J250            	67	0.20916308	DMA5_pat        	;
 J251            	75.19	1.05	DMA2_pat        	;
 J252            	83.82	0.93763138	DMA2_pat        	;
 J253            	74.69	0.644	DMA2_pat        	;
 J254            	74.59	1.14838668	DMA2_pat        	;
 J257            	105.58	0.126	DMA2_pat        	;
 J154            	43.69	0.769384	DMA1_pat        	;
 J155            	44.41	0.22266762	DMA1_pat        	;
 J82             	70.87	0.812	DMA4_pat        	;
 J156            	56.16	0.3963715	DMA1_pat        	;
 J83             	61.07	2.1644392	DMA4_pat        	;
 J84             	43.82	0.22850296	DMA5_pat        	;
 J85             	45	0.616	DMA5_pat        	;
 J159            	37.41	0.38206	DMA1_pat        	;
 J86             	50	2.035943	DMA5_pat        	;
 J87             	42.63	1.7516044	DMA5_pat        	;
 J89             	68.29	0.378	DMA2_pat        	;
 J360            	20.71	1.571843	DMA4_pat        	;
 J361            	26.67	0.35	DMA4_pat        	;
 J362            	43.66	0.098	DMA4_pat        	;
 J363            	72.23	0	                	;
 J364            	65	0	                	;
 J365            	29.83	1.8436348	DMA1_pat        	;
 J366            	14.46	0.693602	DMA1_pat        	;
 J1208           	42.74	0.266	DMA4_pat        	;
 J367            	13.6	0.672	DMA1_pat        	;
 J369            	20.27	0.59407096	DMA1_pat        	;
 J160            	43.69	0.7947485	DMA1_pat        	;
 J161            	22.81	0.104845622	DMA1_pat        	;
 J162            	36.88	1.12566538	DMA1_pat        	;
 J163            	16.2	0.4807068	DMA1_pat        	;
 J164            	17.34	2.0172474	DMA1_pat        	;
 J91             	64.09	1.37346692	DMA2_pat        	;
 J165            	16.69	1.7614534	DMA1_pat        	;
 J166            	23.95	2.1650608	DMA1_pat        	;
 J167            	23.91	0.77237272	DMA1_pat        	;
 J94             	30.75	0.756	DMA3_pat        	;
 J95             	22.56	0.18827984	DMA1_pat        	;
 J96             	30	1.4802018	DMA1_pat        	;
 J97             	34.19	0.574	DMA1_pat        	;
 J976            	6.3	1.344	DMA1_pat        	;
 J571            	77.11	0.26745446	DMA2_pat        	;
 J572            	76.4	1.288	DMA2_pat        	;
 J573            	81.62	1.4471562	DMA2_pat        	;
 J574            	67.36	0.476	DMA2_pat        	;
 J575            	75.27	0.34823992	DMA2_pat        	;
 J576            	80.8	0.658	DMA2_pat        	;
 J370            	20.46	0.5119548	DMA1_pat        	;
 J371            	68.81	0	                	;
 J372            	23.2	0.3043145	DMA1_pat        	;
 J373            	27.22	0.067400284	DMA1_pat        	;
 J374            	13.7	0.80591392	DMA1_pat        	;
 J375            	22.72	0.756	DMA1_pat        	;
 J376            	12.18	2.1535612	DMA1_pat        	;
 J377            	13.12	1.25590808	DMA1_pat        	;
 J1219           	14.48	0.56	DMA1_pat        	;
 J379            	10.25	1.9769064	DMA1_pat        	;
 J171            	8.81	1.9278602	DMA1_pat        	;
 J172            	6.25	1.5689982	DMA1_pat        	;
 J173            	13	1.6844212	DMA1_pat        	;
 J174            	6.11	1.386	DMA1_pat        	;
 J175            	6.84	0.79288076	DMA1_pat        	;
 J177            	13.14	0.686	DMA1_pat        	;
 J179            	15.01	0.574	DMA1_pat        	;
 J580            	113.08	0.966	DMA2_pat        	;
 J486            	86.11	0.41787508	DMA2_pat        	;
 J487            	79	0.98680904	DMA2_pat        	;
 J488            	89.16	0.756	DMA2_pat        	;
 J489            	85.02	1.9008822	DMA2_pat        	;
 J381            	36.02	0.756	DMA4_pat        	;
 J1223           	3.48	0.99757784	DMA1_pat        	;
 J382            	70.42	1.1878258	DMA4_pat        	;
 J384            	42.51	0	                	;
 J385            	76.6	0	                	;
 J180            	8.77	0.672	DMA1_pat        	;
 J181            	10.94	1.5885786	DMA1_pat        	;
 J1024           	5.83	2.0687338	DMA1_pat        	;
 J183            	13.28	0.86453584	DMA1_pat        	;
 J1025           	8.61	0.42	DMA1_pat        	;
 J186            	9.38	0.68335596	DMA1_pat        	;
 J187            	9.81	0.35072646	DMA1_pat        	;
 J188            	8.51	1.23624942	DMA1_pat        	;
 J189            	7.58	0.52094434	DMA1_pat        	;
 J490            	103.84	0.812	DMA2_pat        	;
 J491            	76.93	0.8480703	DMA2_pat        	;
 J492            	94.67	1.218	DMA2_pat        	;
 J493            	77.62	0.658	DMA2_pat        	;
 J494            	112.76	0.44481108	DMA2_pat        	;
 J495            	91.15	1.5961456	DMA2_pat        	;
 J496            	106.34	1.036	DMA2_pat        	;
 J497            	112.63	0.854	DMA2_pat        	;
 J498            	90.12	1.092	DMA2_pat        	;
 J500            	75.52	0.37740192	DMA2_pat        	;
 J499            	72.24	1.88482	DMA2_pat        	;
 J501            	80.97	0.47277608	DMA2_pat        	;
 J502            	80.99	2.2324456	DMA2_pat        	;
 J503            	99.65	0.084	DMA2_pat        	;
 J504            	66.71	0.14355166	DMA2_pat        	;
 J394            	70.53	0	                	;
 J509            	99.94	0.518	DMA2_pat        	;
 J399            	75	0	                	;
 J401            	70	0	                	;
 J406            	71.74	0	                	;
 J295            	56.42	0.40547108	DMA4_pat        	;
 J407            	68	0	                	;
 J296            	30.91	1.6679054	DMA4_pat        	;
 J408            	7.93	0.742	DMA1_pat        	;
 J297            	99.05	0.784	DMA4_pat        	;
 J298            	77.46	0.5057115	DMA4_pat        	;
 J191            	5.76	1.09201316	DMA1_pat        	;
 J303            	50.42	1.7414936	DMA4_pat        	;
 J192            	12.4	1.05	DMA1_pat        	;
 J193            	12.99	0.546	DMA1_pat        	;
 J305            	47.11	2.107231	DMA4_pat        	;
 J194            	13.46	1.036	DMA1_pat        	;
 J195            	15.39	0.20663888	DMA1_pat        	;
 J196            	13.35	0.882	DMA1_pat        	;
 J308            	33.24	0.994	DMA1_pat        	;
 J198            	18.54	0.036592108	DMA1_pat        	;
 J200            	15.75	0.602	DMA1_pat        	;
 J199            	16.26	0.56	DMA1_pat        	;
 J201            	44.86	0.64235626	DMA1_pat        	;
 J202            	10.41	1.372	DMA1_pat        	;
 J203            	11.03	1.8727044	DMA1_pat        	;
 J204            	21.51	0.966	DMA1_pat        	;
 J205            	16.66	0.5838	DMA1_pat        	;
 J206            	14.12	1.7138058	DMA1_pat        	;
 J207            	18.86	0.64672608	DMA1_pat        	;
 J208            	11.25	0.83203484	DMA1_pat        	;
 J101            	28.65	1.01140018	DMA1_pat        	;
 J102            	46.96	2.2049328	DMA1_pat        	;
 J109            	17.47	0.168	DMA1_pat        	;
 J1              	16.82	1.5072204	DMA1_pat        	;
 J2              	11.97	0.81160968	DMA1_pat        	;
 J3              	29.02	0.24367546	DMA1_pat        	;
 J4              	20.88	0.43260588	DMA1_pat        	;
 J5              	22.75	0.18126416	DMA1_pat        	;
 J6              	15.25	1.00977226	DMA1_pat        	;
 J7              	24.91	2.238299	DMA1_pat        	;
 J8              	31.17	1.26473522	DMA1_pat        	;
 J9              	31.89	1.15354554	DMA1_pat        	;
 J10             	14.62	1.358	DMA1_pat        	;
 J11             	18.43	0.50819972	DMA1_pat        	;
 J12             	29.27	0.8843128	DMA1_pat        	;
 J13             	32.04	0.55356	DMA1_pat        	;
 J14             	37.91	0	                	;
 J15             	102.84	0	                	;
 J16             	88.89	0	                	;
 J17             	82.75	0	                	;
 J18             	84.96	0	                	;
 J19             	90.94	0	                	;
 J20             	80	0	                	;
 J21             	80	0	                	;
 J22             	82.74	0	                	;
 J23             	75.96	0	                	;
 J25             	94.13	0.15047942	DMA2_pat        	;
 J26             	76.35	1.7642156	DMA2_pat        	;
 J27             	82.08	1.6345336	DMA2_pat        	;
 J28             	45	0.686	DMA2_pat        	;
 J29             	49	0.3626833	DMA2_pat        	;
 J30             	72.01	0.308	DMA2_pat        	;
 J31             	69.78	0.448	DMA2_pat        	;
 J32             	45	1.8304734	DMA2_pat        	;
 J33             	48	0.117279946	DMA2_pat        	;
 J34             	50	1.208704	DMA2_pat        	;
 J35             	67.78	1.05	DMA2_pat        	;
 J36             	51.08	1.86823	DMA2_pat        	;
 J37             	66.19	0.448	DMA2_pat        	;
 J38             	47	1.358	DMA2_pat        	;
 J24             	34.53	1.876623	DMA1_pat        	;
 J39             	45.88	1.574594	DMA1_pat        	;
 J40             	12.8	1.26	DMA1_pat        	;
 J123            	38.41	2.0434862	DMA3_pat        	;
 J140            	39.94	0.476	DMA3_pat        	;
 J141            	41.45	0.168	DMA3_pat        	;
 J157            	31.49	1.33	DMA3_pat        	;
 J158            	25.88	1.8603606	DMA3_pat        	;
 J168            	40.21	0.966	DMA3_pat        	;
 J170            	46.87	0.93707712	DMA3_pat        	;
 J176            	50.64	0.0224	DMA3_pat        	;
 J178            	58.87	0.39144658	DMA3_pat        	;
 J184            	56.09	0.38321304	DMA3_pat        	;
 J185            	43.71	0.7	DMA3_pat        	;
 J190            	58.49	0.56	DMA3_pat        	;
 J197            	41.86	0.24764558	DMA3_pat        	;
 J213            	52.07	0.64428784	DMA3_pat        	;
 J215            	75.76	1.500443	DMA3_pat        	;
 J216            	53.06	1.176	DMA3_pat        	;
 J227            	52.89	0.686	DMA3_pat        	;
 J238            	44.16	0.2618	DMA3_pat        	;
 J239            	43.49	1.246	DMA3_pat        	;
 J255            	35.31	0.518	DMA3_pat        	;
 J256            	40	0	                	;
 J258            	51.24	1.7986094	DMA3_pat        	;
 J260            	32.53	0.3052	DMA3_pat        	;
 J265            	50.87	0.616	DMA3_pat        	;
 J266            	39.83	0.55073158	DMA3_pat        	;
 J267            	22.31	2.0495636	DMA4_pat        	;
 J61             	72	1.4243432	DMA5_pat        	;
 J92             	72	0.87367518	DMA5_pat        	;
 J268            	69.68	0.90883772	DMA4_pat        	;
 J278            	104.29	2.0080424	DMA2_pat        	;
 J281            	83.72	0.812	DMA2_pat        	;
 J283            	94.06	2.1736386	DMA2_pat        	;
 J284            	77.38	1.2068	DMA2_pat        	;
 J136            	81.8	0.77070196	DMA2_pat        	;
 J137            	9.11	1.204	DMA1_pat        	;
 J145            	47.46	0.60447576	DMA3_pat        	;
 J118            	75	0.60559646	DMA5_pat        	;
 J52             	54.7	0.4169515	DMA4_pat        	;
 J81             	50	0.8095668	DMA2_pat        	;
 J88             	45	0.005846555	DMA2_pat        	;
 J90             	84	1.7321318	DMA2_pat        	;
 J93             	65	3.5	DMA2_pat        	;
 J147            	68	0.378	DMA2_pat        	;
 J148            	50	1.6402638	DMA2_pat        	;
 J149            	40	0.9446843	DMA2_pat        	;
 J150            	60	1.8936666	DMA2_pat        	;
 J151            	60	1.7308214	DMA2_pat        	;
 J152            	32	1.02121558	DMA2_pat        	;
 J153            	60	0.1819545	DMA2_pat        	;
 J169            	42	0.574	DMA2_pat        	;
 J182            	40	0.79187542	DMA2_pat        	;
 J222            	32	1.6579598	DMA2_pat        	;
 J224            	37	0.72867242	DMA2_pat        	;
 J230            	30	1.8638046	DMA4_pat        	;
 J235            	53	0.35409766	DMA4_pat        	;
 J240            	87	1.38364604	DMA2_pat        	;
 J269            	56	0	                	;
 J273            	56	0	                	;
 J274            	56	0	                	;
 J276            	56	0	                	;
 J280            	56	0	                	;
 J285            	56	0	                	;
 J287            	40	0	                	;
 J288            	40	0	                	;
 J289            	40	0	                	;
 J290            	40	0	                	;
 J291            	65	0	                	;
 J292            	40	0	                	;
 J299            	40	0	                	;
 J300            	40	0	                	;
 J301            	44	0	                	;
 J302            	44	0	                	;
 J304            	44	0	                	;
 J306            	44	0	                	;
 J307            	44	0	                	;
 J309            	44	0	                	;
 J317            	44	0	                	;
 J323            	44	0	                	;
 L140            	39.94	0.476	DMA3_pat        	;
 L141            	41.45	0.112	DMA3_pat        	;
 L157            	31.49	0.882	DMA3_pat        	;
 L94             	30.75	0.504	DMA3_pat        	;
 L168            	40.21	0.644	DMA3_pat        	;
 L185            	43.71	0.462	DMA3_pat        	;
 L190            	58.49	0.378	DMA3_pat        	;
 D197            	41.86	0	                	;
 L216            	53.06	0.784	DMA3_pat        	;
 L227            	52.89	0.462	DMA3_pat        	;
 L238            	44.16	0.175	DMA3_pat        	;
 L239            	43.49	0.826	DMA3_pat        	;
 L255            	35.31	0.336	DMA3_pat        	;
 L260            	32.53	0.196	DMA3_pat        	;
 L176            	50.64	0.014	DMA3_pat        	;
 D266            	39.83	0	                	;
 L265            	50.87	0.406	DMA3_pat        	;
 LN3             	80	0	                	;
 L192            	12.4	0.7	DMA1_pat        	;
 L196            	13.35	0.588	DMA1_pat        	;
 L194            	13.46	0.686	DMA1_pat        	;
 L110            	15.92	0.5768	DMA1_pat        	;
 L109            	17.47	0.112	DMA1_pat        	;
 L408            	7.93	0.49	DMA1_pat        	;
 L193            	12.99	0.364	DMA1_pat        	;
 L177            	13.14	0.462	DMA1_pat        	;
 L179            	15	0.378	DMA1_pat        	;
 L1025           	8.61	0.28	DMA1_pat        	;
 L411            	8.95	0.49	DMA1_pat        	;
 L1056           	7.64	0.63	DMA1_pat        	;
 L214            	8.67	0.476	DMA1_pat        	;
 L212            	7.87	0.336	DMA1_pat        	;
 L217            	10.98	0.714	DMA1_pat        	;
 D203            	11.03	0	DMA1_pat        	;
 L341            	14.89	0.238	DMA1_pat        	;
 L204            	21.51	0.644	DMA1_pat        	;
 L308            	33.24	0.658	DMA1_pat        	;
 L202            	10.41	0.91	DMA1_pat        	;
 L314            	14.94	0.798	DMA1_pat        	;
 L199            	16.26	0.364	DMA1_pat        	;
 L211            	11.27	0.882	DMA1_pat        	;
 L1208           	42.74	0.266	DMA4_pat        	;
 L362            	43.66	0.098	DMA4_pat        	;
 L329            	44.05	0.084	DMA4_pat        	;
 L328            	45.69	0.0924	DMA4_pat        	;
 L330            	58.25	0.35	DMA4_pat        	;
 L331            	59.26	0.266	DMA4_pat        	;
 L297            	99	0.518	DMA4_pat        	;
 L221            	97	0.2646	DMA4_pat        	;
 L51             	77	0.28	DMA4_pat        	;
 L78             	60	0.0182	DMA4_pat        	;
 D353            	22.64	0	                	;
 L351            	25.51	0.784	DMA4_pat        	;
 L352            	47.55	0.42	DMA4_pat        	;
 L349            	36.41	0.602	DMA4_pat        	;
 L381            	36.02	0.504	DMA4_pat        	;
 L348            	62.18	1.092	DMA4_pat        	;
 D327            	49.68	0	                	;
 L50             	71.8	0.35	DMA4_pat        	;
 L82             	70.87	0.546	DMA4_pat        	;
 LN4             	100	0	                	;
 L574            	67.36	0.322	DMA2_pat        	;
 L89             	68.29	0.252	DMA2_pat        	;
 D573            	81.62	0	                	;
 L128            	85.26	0.364	DMA2_pat        	;
 L131            	88.05	0.15806	DMA2_pat        	;
 L492            	94.67	0.812	DMA2_pat        	;
 L490            	103	0.532	DMA2_pat        	;
 D494            	100	0	                	;
 L496            	106.34	0.686	DMA2_pat        	;
 L498            	90.12	0.728	DMA2_pat        	;
 L134            	80.7	0.322	DMA2_pat        	;
 L497            	112	0.56	DMA2_pat        	;
 L135            	70	0.364	DMA2_pat        	;
 D234            	64.04	0	                	;
 D233            	74.23	0	                	;
 D22             	82.74	0	                	;
 D385            	76.6	0	                	;
 L251            	75.19	0.7	DMA2_pat        	;
 D257            	82	0	                	;
 L37             	66.19	0.294	DMA2_pat        	;
 L35             	67.78	0.7	DMA2_pat        	;
 L31             	69.78	0.28	DMA2_pat        	;
 L30             	72	0.2086	DMA2_pat        	;
 L580            	113	0.644	DMA2_pat        	;
 L511            	105	0.658	DMA2_pat        	;
 L503            	99.65	0.056	DMA2_pat        	;
 L509            	99.94	0.35	DMA2_pat        	;
 L54             	80	0.91	DMA5_pat        	;
 L67             	79	0.056	DMA5_pat        	;
 L53             	80	1.106	DMA5_pat        	;
 L73             	80	0.49	DMA5_pat        	;
 L71             	77	0.119	DMA5_pat        	;
 L77             	76	0.77	DMA5_pat        	;
 L68             	73	0.448	DMA5_pat        	;
 L58             	76	0.476	DMA5_pat        	;
 L56             	72	0.14	DMA5_pat        	;
 L57             	59	0.602	DMA5_pat        	;
 L59             	57	0.378	DMA5_pat        	;
 L60             	55	0.42	DMA5_pat        	;
 L219            	52	0.546	DMA5_pat        	;
 L66             	72	0.91	DMA5_pat        	;
 L245            	71	0.4284	DMA5_pat        	;
 L244            	70	0.7308	DMA5_pat        	;
 L247            	57	0.546	DMA5_pat        	;
 L248            	54	0.77	DMA5_pat        	;
 L242            	65	0.364	DMA5_pat        	;
 D250            	67	0	                	;
 LN5             	80	0	                	;
 D218            	7.68	0	                	;
 L435            	12.15	0.07	DMA1_pat        	;
 L10             	14.62	0.896	DMA1_pat        	;
 LN2             	100	0	                	;
 L436            	17.6	0.42	DMA1_pat        	;
 L429            	12.56	0.91	DMA1_pat        	;
 L438            	10.43	1.05	DMA1_pat        	;
 L434            	16.5	0.532	                	;
 L431            	16.9	0.588	DMA1_pat        	;
 D432            	19.88	0	                	;
 L1160           	24.9	0.658	DMA1_pat        	;
 D101            	28	0	                	;
 D102            	46.96	0	                	;
 L97             	34.17	0.378	DMA1_pat        	;
 L1219           	14.5	0.378	                	;
 D173            	13	0	                	;
 D181            	11	0	                	;
 D175            	6.84	0	                	;
 L174            	6.11	0.924	DMA1_pat        	;
 L137            	9.11	0.798	                	;
 L180            	8.77	0.448	                	;
 D1024           	5.83	0	                	;
 D142            	5.53	0	                	;
 L976            	6.3	0.896	DMA1_pat        	;
 D1123           	3.48	0	                	;
 L40             	12.8	0.84	DMA1_pat        	;
 L316            	12.98	0.336	DMA1_pat        	;
 L375            	22.72	0.504	DMA1_pat        	;
 D208            	11.25	0	                	;
 L337            	22.11	0.518	DMA1_pat        	;
 L1157           	22.21	0.91	DMA1_pat        	;
 D1153           	22.14	0	                	;
 L1155           	15.54	0.77	DMA1_pat        	;
 D1154           	14.6	0	                	;
 L200            	15.75	0.392	DMA1_pat        	;
 D206            	14.12	0	                	;
 L367            	13.6	0.448	DMA1_pat        	;
 L205            	16.66	0.378	DMA1_pat        	;
 L320            	46.73	0.28	DMA4_pat        	;
 L361            	26.67	0.238	DMA4_pat        	;
 D1169           	55.42	0	                	;
 L1170           	54.54	0.448	DMA3_pat        	;
 D88             	45	0	                	;
 D36             	51	0	                	;
 D29             	49	0	                	;
 D34             	45	0	                	;
 L28             	45	0.462	DMA2_pat        	;
 L93             	65	2.352	DMA2_pat        	;
 D249            	50	0	                	;
 L85             	45	0.406	DMA5_pat        	;
 D278            	104	0	                	;
 L281            	83.72	0.546	DMA2_pat        	;
 L253            	75	0.42	DMA2_pat        	;
 L493            	77.62	0.434	DMA2_pat        	;
 L132            	75	0.462	DMA2_pat        	;
 D489            	85	0	                	;
 L488            	90	0.504	DMA2_pat        	;
 D491            	77	0	                	;
 D571            	77	0	                	;
 L572            	76.4	0.854	DMA2_pat        	;
 L147            	68	0.252	DMA2_pat        	;
 D136            	81.8	0	                	;
 D129            	62.85	0	                	;
 L169            	42	0.378	DMA2_pat        	;
 L318            	53	0.896	DMA4_pat        	;
 LN1             	60	0	                	;
 L576            	80	0.434	DMA2_pat        	;
 L38             	47	0.896	DMA2_pat        	;
 D321            	44.6	0	                	;
 L324            	42.38	0.924	DMA4_pat        	;
 L13             	32	0.36904	DMA1_pat        	;
 L159            	37.4	0.25466	DMA1_pat        	;
 D83             	61	0	                	;


[RESERVOIRS]
;ID              	Head        	Pattern         
 R1              	59          	                	;
 LR3             	25          	                	;
 LR4             	17          	                	;
 LR2             	32          	                	;
 LR5             	42          	                	;
 LR1             	3           	                	;

[TANKS]
;ID              	Elevation   	InitLevel   	MinLevel    	MaxLevel    	Diameter    	MinVol      	VolCurve        	Overflow
 T3              	112.9       	3           	0           	6.75        	13.73       	0           	                	;
 T1              	71.5        	3           	0           	6.5         	31.3        	0           	                	;
 T7              	102         	2.5         	0           	5           	7.14        	0           	                	;
 T6              	101.5       	5.2         	0           	5.5         	8.33        	0           	                	;
 T5              	105.8       	1.0         	0           	4.5         	11.89       	0           	                	;
 T2              	65          	.5          	0           	5.9         	20.78       	0           	                	;
 T4              	132.5       	2.5         	0           	4.7         	11.64       	0           	                	;
 LT3             	102         	3           	0           	6.75        	7.14        	0           	                	;